ieee.odm.test/testdata/psse/v31/AESO_2011_FLL_V31.raw
0,   100.00, 31, 0, 1, 60.00     / PSS(R)E-31.2    MON, JUN 27 2011   8:53
TASMO MODEL; OUTPUT GENERATED 2010-09-16 09:31:29
SWINGBUS 1520 FOR FC-2009-9:2011-10-15:3:33--1-0-0-0
     1,'JUDY515S    ',  69.0000,1,  26,  99,  17,1.02114,   2.9693
     2,'MAYERTH     ', 138.0000,1,  40,  99,  17,1.02884,   6.7034
     3,'COLINTO7    ', 138.0000,1,  27,  99,  17,1.02928,   4.3484
     4,'WESTLOC7    ', 138.0000,1,  27,  99,  17,1.03860,   6.9916
     5,'CLYDE  7    ', 138.0000,1,  27,  99,  17,1.03467,   6.7579
     6,'DICKSOA9    ',   4.1600,2,  39,  99,   7,1.02500,   9.9632
     7,'BOYLE  7    ', 138.0000,1,  27,  99,  17,1.02812,   3.3963
     8,'WHI 3647    ', 138.0000,1,  26,  99,  17,1.03206,   5.7876
     9,'WHITECO7    ', 138.0000,1,  26,  99,  17,1.03129,   5.5080
    10,'WHITECO8    ',  69.0000,1,  26,  99,  17,1.04742,   5.8873
    11,'JUDY CR8    ',  69.0000,1,  26,  99,  17,1.02169,   2.9683
    12,'FOX CREE    ', 138.0000,1,  24,  99,  17,1.03140,   4.2589
    13,'KAYBOB 7    ', 138.0000,1,  24,  99,  17,1.02181,   5.1089
    14,'WESGEN 9    ',  13.8000,2,  27,  99,   4,1.02500,   9.4239
    15,'MTN COA7    ', 138.0000,1,  29,  99,  17,1.00848,   6.9268
    16,'FLATBUS7    ', 138.0000,1,  27,  99,  17,1.03607,   7.0719
    17,'COLD CR7    ', 138.0000,1,  29,  99,  17,1.00239,   6.8329
    18,'GULF RO7    ', 138.0000,1,  29,  99,  17,1.01687,   7.6419
    19,'WESGEN T    ', 138.0000,1,  27,  99,  17,1.03868,   7.2910
    20,'EDSON  7    ', 138.0000,1,  29,  99,  17,1.01856,   7.8495
    21,'WESGEN 7    ', 138.0000,1,  27,  99,   4,1.03881,   7.5643
    23,'PEMBINA8    ',  69.0000,1,  30,  99,  17,1.00450,   6.9266
    25,'ENTWIST8    ',  69.0000,1,  40,  99,  17,1.03948,   6.9712
    26,'ENTWIST7    ', 138.0000,1,  40,  99,  17,1.02543,   8.0787
    27,'WABAMUN8    ',  69.0000,1,  40,  99,  17,1.02635,   9.2060
    28,'MOON LA8    ',  69.0000,1,  30,  99,  17,1.01338,   6.5650
    29,'EASYFOR8    ',  69.0000,1,  30,  99,  17,0.99917,   7.0777
    30,'DRAYTON8    ',  69.0000,1,  30,  99,  17,1.00614,   6.9874
    31,'FINCAST7    ', 138.0000,1,  52,  99,  17,1.02059,   4.0933
    32,'ONOWAY 8    ',  69.0000,1,  40,  99,  17,1.00880,   7.6179
    33,'BRAZEAA9    ',  13.2000,2,  30,  99,  17,1.01454,   7.4393
    34,'LODGEPO8    ',  69.0000,1,  30,  99,  17,1.01410,   7.9126
    35,'LODGEPO7    ', 138.0000,1,  30,  99,  17,1.00004,   8.5530
    36,'BRAZEAU7    ', 138.0000,1,  30,  99,  17,1.02182,   7.6800
    37,'HRT EXP7    ', 138.0000,1,  32,  99,  25,1.04274,  10.9852
    38,'BRAZ OUT    ', 138.0000,1,  30,  99,  17,1.01454,   7.4393
    39,'CYNTHIA7    ', 138.0000,1,  30,  99,  17,0.99998,   7.7111
    40,'N CALDE7    ', 138.0000,1,  60,  99,  17,1.03546,   9.4882
    41,'N BARRH7    ', 138.0000,1,  40,  99,  17,1.04991,   7.6216
    42,'AMOCO BR    ', 138.0000,1,  30,  99,  17,1.00055,   7.0888
    43,'SCOTF_4     ', 138.0000,2,  33,  99,  29,1.02533,  10.1769
    44,'FT ASBN7    ', 138.0000,1,  40,  99,  17,1.04525,   6.1146
    46,'N BARRH8    ',  69.0000,1,  40,  99,  17,1.02034,   7.2478
    47,'SHERWOO7    ', 138.0000,1,  60,  99,  17,1.03900,   9.9949
    48,'DIAM SH7    ', 138.0000,1,  33,  99,  17,1.02935,  10.2252
    49,'KEYSTON7    ', 138.0000,1,  30,  99,  17,1.00577,  14.4943
    50,'RIVERSID    ', 138.0000,2,  33,  99, 211,1.03000,  10.0363
    51,'W PEMBI7    ', 138.0000,1,  30,  99,  17,0.99942,   7.1589
    52,'BLUERIDG    ', 138.0000,1,  26,  99,  17,1.02675,   5.7163
    53,'SANDYPT7    ', 138.0000,1,  48,  99,  17,1.07073,   5.9773
    55,'GULF OI7    ', 138.0000,1,  60,  99,  17,1.04150,  10.1999
    56,'IPPL ED7    ', 138.0000,1,  60,  99,  17,1.04204,  10.2293
    57,'LAMOURE4    ', 240.0000,1,  33,  99,  17,1.03937,  11.0847
    58,'FORT SA7    ', 138.0000,1,  60,  99,  17,1.03794,  10.1383
    59,'REDWATE7    ', 138.0000,1,  33,  99,  17,1.02217,   9.6616
    60,'BEAMER 7    ', 138.0000,1,  33,  99,  17,1.02555,   9.8889
    61,'UN CARB9    ', 138.0000,2,  33,  99, 191,1.04000,  10.2191
    62,'SHERRIT7    ', 138.0000,1,  33,  99,  17,1.03872,  10.1427
    63,'LAMOURE7    ', 138.0000,1,  33,  99,  17,1.04157,  10.2400
    64,'BANFF  7    ', 138.0000,1,  44,  99,  17,1.04232,  -3.3642
    65,'BARDO  7    ', 138.0000,1,  31,  99,  17,1.04183,   8.9098
    66,'IOL 737L    ', 138.0000,1,  60,  99,  17,1.04087,  10.1882
    67,'BRUDERH7    ', 138.0000,1,  33,  99,  17,1.03700,   9.9375
    68,'N HOLDE7    ', 138.0000,1,  56,  99,  17,1.04891,   8.9928
    69,'IOL 738L    ', 138.0000,1,  60,  99,  17,1.03751,   9.9442
    70,'CAMROSE7    ', 138.0000,1,  31,  99,  17,1.03590,   8.5254
    71,'JARROW 8    ',  69.0000,1,  32,  99,  17,1.06038,  10.4951
    72,'JARROW 7    ', 138.0000,1,  32,  99,  17,1.04198,  10.5049
    73,'HARDIST7    ', 138.0000,1,  32,  99,  17,1.04299,  11.0386
    74,'METIS647    ', 138.0000,1,  37,  99,  17,1.04055,   8.8935
    75,'HUGHEND7    ', 138.0000,1,  37,  99,  17,1.03821,   9.7333
    76,'IPPL ST7    ', 138.0000,1,  56,  99,  17,1.05873,  11.6087
    77,'WAINWRI8    ',  69.0000,1,  32,  99,  17,1.06203,  10.3892
    78,'SEDGEWI7    ', 138.0000,1,  32,  99,  17,1.05262,  12.7757
    79,'BUFFALO7    ', 138.0000,1,  32,  99,  17,1.03289,   8.1614
    80,'BUCKLAK7    ', 138.0000,1,  30,  99,  17,0.99359,  10.9071
    81,'BIGSTON4    ', 240.0000,1,  31,  99,  17,1.04068,  11.4553
    82,'CHEVRON7    ', 138.0000,1,  24,  99,  17,1.02167,   5.1035
    83,'RBCUPIL7    ', 138.0000,1,  17,  99,  21,1.08271,   0.6531
    85,'MILLAR 7    ', 138.0000,1,  26,  99,  17,1.01863,   5.3337
    86,'PROVOST7    ', 138.0000,1,  37,  99,  17,1.03378,   8.5159
    87,'METIS644    ', 240.0000,1,  37,  99,  17,1.07009,  10.6135
    88,'BICKERD7    ', 138.0000,1,  29,  99,  17,1.02277,   8.7163
    89,'E EDMON7    ', 138.0000,1,  60,  99,  17,1.04275,  10.2727
    90,'BICKERD4    ', 240.0000,1,  29,  99,  17,1.08120,  10.2208
    91,'NISKU  7    ', 138.0000,1,  60,  99,  17,1.03703,   8.2567
    93,'WETASKI7    ', 138.0000,1,  31,  99,  17,1.03362,   8.6100
    94,'ERVICK 7    ', 138.0000,1,  31,  99,  17,1.03440,   8.4469
    95,'PONOKA 7    ', 138.0000,1,  31,  99,  17,1.02572,   6.6491
    96,'DEVON  7    ', 138.0000,1,  60,  99,  17,1.03012,   8.0438
    97,'ECKVILL7    ', 138.0000,1,  35,  99,  17,1.03678,   5.5039
    98,'RIMBEY 7    ', 138.0000,1,  35,  99,  17,1.03244,   5.0418
    99,'BENALTO7    ', 138.0000,1,  35,  99,  17,1.04125,   5.8492
   100,'ROCKY M7    ', 138.0000,1,  38,  99,  17,1.02549,   4.0154
   101,'COOKING7    ', 138.0000,1,  60,  99,  17,1.03963,   9.2741
   102,'BIGHORN1    ',  13.8000,2,  34,  99,  17,0.97029,   6.7284
   103,'BIG HOR7    ', 138.0000,1,  34,  99,  17,1.03498,   6.7284
   104,'STRACHA7    ', 138.0000,1,  38,  99,  17,1.02282,   3.5075
   105,'PIGEON 7    ', 138.0000,1,  31,  99,  17,1.03509,   8.6350
   106,'DEERLAN7    ', 138.0000,1,  33,  99,  17,1.03309,  10.0934
   107,'SUNDRE 7    ', 138.0000,1,  38,  99,  17,1.00681,   1.2840
   108,'BIGHORN2    ',  13.8000,2,  34,  99,  17,0.97200,  11.7275
   109,'DEERLAN4    ', 240.0000,1,  33,  99,  17,1.05537,  10.7170
   110,'IPL EDM7    ', 138.0000,1,  60,  99,  17,1.04203,  10.2290
   111,'SANDHIL7    ', 138.0000,1,  48,  99,  17,1.07083,   5.9839
   112,'SUNKEN7     ', 138.0000,1,  37,  99,  17,1.04049,   8.9007
   113,'BLACKFA7    ', 138.0000,1,  35,  99,  17,1.03203,   5.7960
   114,'LACOMBE7    ', 138.0000,1,  35,  99,  17,1.02827,   5.9351
   115,'S RED DE    ', 138.0000,1,  35,  99,  17,1.03516,   5.8555
   116,'W LACOMB    ', 138.0000,1,  35,  99,  17,1.02934,   6.0024
   117,'RED DE A    ', 138.0000,1,  35,  99,  17,1.03465,   5.9748
   118,'RED DE B    ', 138.0000,1,  35,  99,  17,1.03465,   5.9748
   119,'N RED D7    ', 138.0000,1,  35,  99,  17,1.03759,   5.8226
   120,'INNISFA7    ', 138.0000,1,  39,  99,  17,1.02372,   4.2298
   121,'OLDS   7    ', 138.0000,1,  39,  99,  17,1.01283,   1.8782
   122,'MADDEN 7    ', 138.0000,1,  39,  99,  17,1.01324,  -0.0029
   123,'DIDSBURY    ', 138.0000,1,  39,  99,  17,1.01275,   1.0004
   124,'HARMATT7    ', 138.0000,1,  39,  99,  17,1.00930,   0.9174
   125,'YASAA7      ', 138.0000,1,  60,  99,  17,1.04189,  10.2224
   126,'SHELL H7    ', 138.0000,1,  39,  99,  17,1.01176,   0.8845
   127,'BEDDING2    ', 138.0000,1,   6,  99,   3,1.02593,   2.3185
   128,'ELLERSLI    ', 240.0000,1,  50,  99,  17,1.04657,  14.5099
   130,'SUND#3GN    ',  20.0000,2,  40,  99,  17,0.98400,  21.0881
   131,'SUNDANA8    ',  69.0000,1,  40,  99,  17,1.01268,  11.2236
   132,'SUNDANC7    ', 138.0000,1,  40,  99,  17,1.03428,  13.1281
   133,'WABAMUN4    ', 240.0000,1,  50,  99,  17,1.05960,  12.3475
   134,'WABAMUN7    ', 138.0000,1,  40,  99,  17,1.03485,  10.0883
   135,'SUNDANC4    ', 240.0000,1,  50,  99,  17,1.07042,  13.3783
   136,'E EDMON4    ', 240.0000,1,  50,  99,  17,1.04168,  13.5010
   137,'N CALDE4    ', 240.0000,1,  60,  99,  17,1.04085,  11.4429
   138,'N BARRH4    ', 240.0000,1,  51,  99,  17,1.08238,   9.3331
   141,'DALEHUR7    ', 138.0000,1,  29,  99,  17,1.00840,   6.9588
   142,'KINGMAN7    ', 138.0000,1,  31,  99,  17,1.04011,   8.7707
   143,'WHITEWO7    ', 138.0000,1,  40,  99,  17,1.03282,   9.6927
   144,'ALGAR  7    ', 138.0000,1,  25,  99,   1,1.07905,   7.8518
   147,'GAETZ  4    ', 240.0000,1,  50,  99,  17,1.02206,   8.1091
   148,'GAETZ  7    ', 138.0000,1,  35,  99,  17,1.04099,   5.9670
   150,'WILLESD4    ', 240.0000,1,  50,  99,  17,1.04308,   8.5013
   151,'BRAZ#1 9    ',  13.8000,2,  30,  99,  17,1.04797,   8.4500
   152,'RED DEE4    ', 240.0000,1,  50,  99,  17,1.03825,   8.0239
   153,'BRAZEAU4    ', 240.0000,1,  50,  99,  17,1.04000,   8.3122
   154,'BRAZ#2 9    ',  13.8000,2,  30,  99,  17,0.97052,   8.3122
   155,'BENALTO4    ', 240.0000,1,  50,  99,  17,1.04806,   9.3148
   156,'E CROSS4    ', 240.0000,1,  50,  99,  17,1.04627,   4.7971
   157,'COCHIN 8    ',  69.0000,1,  32,  99, 241,1.06204,  10.3876
   158,'LANGDON2    ', 500.0000,1,  50,  99,  17,1.07612,   3.2499
   159,'LANGDON4    ', 240.0000,1,  50,  99,  17,1.05400,   3.7487
   160,'JANET  4    ', 240.0000,1,  50,  99,  17,1.04743,   3.6376
   161,'SARCEE 4    ', 240.0000,1,  50,  99,  17,1.03952,   2.9985
   162,'E CALGAR    ', 240.0000,1,  50,  99,  17,1.04113,   3.0450
   163,'SAGITAW4    ', 240.0000,1,  26,  99,  17,1.07721,   7.3351
   164,'SAGITAW7    ', 138.0000,1,  26,  99,  17,1.03419,   6.0968
   165,'PEIGAN 4    ', 240.0000,1,  53,  99, 191,1.08550,   6.3076
   166,'PEIGAN 7    ', 138.0000,1,  53,  99, 191,1.08281,   7.7180
   167,'N LETHB4    ', 240.0000,1,  54,  99,  17,1.08040,   5.6258
   168,'SUNSHIN8    ',  69.0000,1,  44,  99,  17,0.98658,  -9.3165
   169,'CAN CEM7    ', 138.0000,1,  44,  99,  17,1.04104,  -2.6017
   170,'COCHRAN7    ', 138.0000,1,  44,  99,  17,1.01476,  -1.1531
   171,'SEEBE  7    ', 138.0000,1,  44,  99,  17,1.03912,  -1.9788
   172,'HORS GEN    ',  12.0000,2,  44,  99,  17,1.02893,  -0.4113
   173,'BRETV A7    ', 138.0000,1,  60,  99,  17,1.04158,  10.1997
   174,'SPRAY G1    ',  13.2000,2,  44,  99,  17,1.04663,  -1.8276
   175,'CASCADE7    ', 138.0000,1,  44,  99,  17,1.04378,  -3.2452
   176,'CASCADE9    ',  13.2000,2,  44,  99,  17,1.04775,  -3.2259
   177,'AIRDRIE     ', 138.0000,1,  57,  99,  17,1.00981,   2.2034
   178,'BANFF  8    ',  69.0000,1,  44,  99,  17,0.98930,  -8.9558
   179,'MARIANA7    ', 138.0000,1,  25,  99,   1,1.07638,   8.7510
   180,'GHOST  7    ', 138.0000,1,  44,  99,  17,1.02657,  -1.3398
   181,'GHOST A9    ',  13.2000,2,  44,  99,  17,1.02408,  -0.8226
   183,'BEARSPWB    ',  13.2000,2,  44,  99,  17,1.05860,   0.2631
   184,'BEARSPAW    ', 138.0000,1,  44,  99,  17,1.01960,   0.0283
   187,'BEDDING1    ', 240.0000,1,  50,  99,   3,1.04160,   4.1023
   188,'ANG COCA    ',  25.0000,1,  44,  99,  17,1.03311,  -5.0967
   189,'ANG COCB    ',  13.8000,2,  44,  99,  17,0.99874,  -6.0468
   190,'SPRAY G2    ',  13.2000,2,  44,  99,  17,1.04678,  -2.6313
   191,'ANG COCH    ', 138.0000,1,  44,  99,  17,1.01385,  -1.6699
   192,'NELSON L    ', 138.0000,1,  31,  99,  17,1.02272,   6.4933
   193,'KANANAS7    ', 138.0000,1,  44,  99,  17,1.03948,  -1.9515
   194,'LAKE LO8    ',  69.0000,1,  44,  99,  17,0.95690, -10.7466
   195,'RUNDLE S    ', 138.0000,1,  44,  99,  17,1.04737,  -2.7522
   196,'KANANAS9    ',  12.0000,2,  44,  99,  17,1.04786,  -0.3122
   197,'RUNDLE G    ',  13.8000,2,  44,  99,  17,1.04388,  -2.5882
   198,'BALZAC 7    ', 138.0000,1,   6,  99,  17,1.02708,   2.3355
   199,'SHELL J7    ', 138.0000,1,  44,  99,  17,1.02430,  -0.9884
   201,'JUMPPND7    ', 138.0000,1,  44,  99,  17,1.03236,  -1.2951
   202,'SARCEE 7    ', 138.0000,1,   6,  99,  17,1.01986,   0.7959
   203,'SARCEE C    ',  13.8000,1,   6,  99,  17,1.05955,   0.7279
   204,'MCMILLA4    ', 240.0000,1,  25,  99,   1,1.11624,  11.1674
   205,'AMOCO R7    ', 138.0000,1,  38,  99,  17,1.01165,   1.6028
   206,'LAC LA 8    ',  69.0000,1,  40,  99,  17,1.00832,   7.1543
   207,'JANET  7    ', 138.0000,1,   6,  99,  17,1.01939,   1.6183
   208,'ENMX2S 7    ', 138.0000,1,   6,  99,   3,1.01564,   0.6775
   209,'BRETONA1    ', 138.0000,1,  60,  99,  17,1.04060,   9.8462
   211,'MOUNT A7    ', 138.0000,1,  44,  99,  17,1.04361,  -2.3912
   213,'HAIGRIVE    ', 138.0000,1,  17,  99,   1,1.09272,  -0.2055
   214,'POCATEA9    ',  13.8000,2,  44,  99,  17,1.02119,  -2.0224
   215,'TEX.W.P7    ', 138.0000,1,  30,  99,  17,0.99883,   7.8279
   216,'BARRIER7    ', 138.0000,1,  44,  99,  17,1.04101,  -2.1492
   218,'BLACKMUD    ', 138.0000,1,  60,  99,  17,1.03463,   8.1591
   219,'KILLARN7    ', 138.0000,1,  37,  99,  17,1.00315,   6.4968
...
0 / END OF BUS DATA, BEGIN LOAD DATA
    14,'99',1,  27,  99,     0.433,     0.173,     0.000,     0.000,     0.000,     0.000,   4
    43,'37',1,  33,  37,   190.600,    70.927,     0.000,     0.000,     0.000,     0.000,  29
    43,'99',1,  33,  99,    60.470,    29.910,     0.000,     0.000,     0.000,     0.000,  29
    50,'37',1,  33,  37,    16.700,     8.400,     0.000,     0.000,     0.000,     0.000, 211
    57,'99',1,  33,  99,    18.427,     9.166,     0.000,     0.000,     0.000,     0.000,  17
    61,'37',1,  33,  37,    51.300,    22.536,     0.000,     0.000,     0.000,     0.000, 191
    61,'99',1,  33,  99,    26.213,     0.000,     0.000,     0.000,     0.000,     0.000, 191
   109,'99',1,  33,  99,     7.094,     3.545,     0.000,     0.000,     0.000,     0.000,  17
   130,'36',1,  40,  36,    20.900,    10.400,     0.000,     0.000,     0.000,     0.000,  17
   176,'99',1,  44,  99,     0.606,     0.173,     0.000,     0.000,     0.000,     0.000,  17
   179,'99',1,  25,  99,     7.353,     3.632,     0.000,     0.000,     0.000,     0.000,   1
   188,'99',1,  44,  99,    16.567,     3.675,     0.000,     0.000,     0.000,     0.000,  17
   189,'99',1,  44,  99,     8.045,     3.113,     0.000,     0.000,     0.000,     0.000,  17
   197,'99',1,  44,  99,     0.260,     0.086,     0.000,     0.000,     0.000,     0.000,  17
   214,'99',1,  44,  99,     0.606,     0.346,     0.000,     0.000,     0.000,     0.000,  17
   222,'99',1,  44,  99,     0.606,    -0.519,     0.000,     0.000,     0.000,     0.000,  17
   234,'99',1,  53,  99,     0.519,     0.259,     0.000,     0.000,     0.000,     0.000,  44
   248,'37',1,  28,  37,    12.100,     6.000,     0.000,     0.000,     0.000,     0.000,  36
   268,'99',1,  48,  99,     9.430,     1.816,     0.000,     0.000,     0.000,     0.000,  17
   287,'99',1,  48,  99,    13.496,     2.594,     0.000,     0.000,     0.000,     0.000,  17
   288,'99',1,  48,  99,     6.748,     1.297,     0.000,     0.000,     0.000,     0.000,  17
   289,'99',1,  48,  99,     8.738,     1.729,     0.000,     0.000,     0.000,     0.000,  17
   342,'36',1,  40,  36,    19.800,     9.900,     0.000,     0.000,     0.000,     0.000,  17
   345,'35',1,  40,  35,    33.766,     0.000,     0.000,     0.000,     0.000,     0.000,  17
   345,'36',1,  40,  36,    16.400,     8.200,     0.000,     0.000,     0.000,     0.000,  17
   350,'36',1,  40,  36,    25.200,    12.600,     0.000,     0.000,     0.000,     0.000,  17
   375,'99',1,  44,  99,     0.519,    -0.259,     0.000,     0.000,     0.000,     0.000,  17
   380,'99',1,  44,  99,     2.682,     1.297,     0.000,     0.000,     0.000,     0.000,  17
   383,'37',1,  35,  37,    42.050,    19.345,     0.000,     0.000,     0.000,     0.000,  17
   383,'99',1,  35,  99,    65.704,    45.096,     0.000,     0.000,     0.000,     0.000,  17
   403,'36',1,  40,  36,    36.700,    18.400,     0.000,     0.000,     0.000,     0.000,  17
   405,'36',1,  25,  36,     3.000,     1.500,     0.000,     0.000,     0.000,     0.000, 251
   422,'36',1,  40,  36,    24.300,    12.100,     0.000,     0.000,     0.000,     0.000,  17
   424,'36',1,  40,  36,    22.100,    11.100,     0.000,     0.000,     0.000,     0.000,  17
   478,'99',1,  44,  99,    14.188,     4.583,     0.000,     0.000,     0.000,     0.000,  17
   479,'99',1,  44,  99,     0.260,     0.086,     0.000,     0.000,     0.000,     0.000,  17
   490,'36',1,  40,  36,    41.700,    20.800,     0.000,     0.000,     0.000,     0.000,   5
   491,'36',1,  40,  36,    26.800,    13.400,     0.000,     0.000,     0.000,     0.000,   5
   492,'36',1,  40,  36,    30.400,    15.200,     0.000,     0.000,     0.000,     0.000,   5
   497,'99',1,  60,  99,     0.173,     0.086,     0.000,     0.000,     0.000,     0.000,   5
   498,'99',1,  60,  99,     0.173,     0.086,     0.000,     0.000,     0.000,     0.000,   5
   499,'99',1,  60,  99,     0.173,     0.086,     0.000,     0.000,     0.000,     0.000,   5
   680,'37',1,   4,  37,    71.100,    29.400,     0.000,     0.000,     0.000,     0.000,  17
   911,'99',1,  48,  99,    10.035,     5.015,     0.000,     0.000,     0.000,     0.000,  17
  1017,'37',1,  17,  37,    10.100,     5.050,     0.000,     0.000,     0.000,     0.000,   1
  1017,'99',1,  17,  99,     5.277,     2.594,     0.000,     0.000,     0.000,     0.000,   1
  1029,'99',1,  17,  99,    10.208,     2.508,     0.000,     0.000,     0.000,     0.000,   1
  1031,'99',1,  17,  99,     5.710,     1.384,     0.000,     0.000,     0.000,     0.000,   1
  1032,'35',1,  17,  35,     2.926,     0.000,     0.000,     0.000,     0.000,     0.000,   1
  1032,'99',1,  17,  99,    14.188,     3.459,     0.000,     0.000,     0.000,     0.000,   1
  1035,'99',1,  17,  99,     0.260,     0.086,     0.000,     0.000,     0.000,     0.000,  21
  1089,'34',1,  19,  34,    27.000,    12.000,     0.000,     0.000,     0.000,     0.000,   1
  1101,'37',1,  20,  37,     5.200,     2.600,     0.000,     0.000,     0.000,     0.000,  30
  1141,'34',1,  20,  34,    14.400,    10.000,     0.000,     0.000,     0.000,     0.000,   1
  1141,'99',1,  20,  99,    12.976,     6.485,     0.000,     0.000,     0.000,     0.000,   1
  1146,'34',1,  20,  34,    14.900,    10.000,     0.000,     0.000,     0.000,     0.000,   1
  1148,'36',1,  22,  36,    13.800,     6.900,     0.000,     0.000,     0.000,     0.000,   1
  1167,'99',1,  23,  99,     3.287,     1.643,     0.000,     0.000,     0.000,     0.000,   1
  1168,'99',1,  23,  99,     3.287,     1.643,     0.000,     0.000,     0.000,     0.000,   1
  1169,'99',1,  23,  99,     7.440,     2.335,     0.000,     0.000,     0.000,     0.000,   1
  1171,'35',1,  23,  35,     8.876,     0.000,     0.000,     0.000,     0.000,     0.000,   1
  1171,'99',1,  23,  99,     0.433,     0.173,     0.000,     0.000,     0.000,     0.000,   1
  1173,'35',1,  23,  35,     1.947,     0.000,     0.000,     0.000,     0.000,     0.000,   1
  1173,'99',1,  23,  99,     0.433,     0.173,     0.000,     0.000,     0.000,     0.000,   1
  1200,'99',1,  25,  99,     1.298,     0.605,     0.000,     0.000,     0.000,     0.000,   1
  1205,'35',1,  25,  35,    10.539,     0.000,     0.000,     0.000,     0.000,     0.000,   9
  1205,'37',1,  25,  37,   342.000,   147.100,     0.000,     0.000,     0.000,     0.000,   9
  1208,'37',1,  25,  37,   333.600,   166.900,     0.000,     0.000,     0.000,     0.000,  10
  1222,'99',1,  25,  99,     9.689,     4.842,     0.000,     0.000,     0.000,     0.000,   1
  1231,'99',1,  21,  99,    12.717,    -1.643,     0.000,     0.000,     0.000,     0.000,   1
  1232,'99',1,  21,  99,    12.717,    -1.643,     0.000,     0.000,     0.000,     0.000,   1
  1236,'37',1,  25,  37,    31.800,    15.900,     0.000,     0.000,     0.000,     0.000,  40
  1241,'37',1,  25,  37,    72.900,    25.500,     0.000,     0.000,     0.000,     0.000,  99
  1251,'37',1,  25,  37,    35.200,    17.600,     0.000,     0.000,     0.000,     0.000, 261
  1262,'37',1,  25,  37,    30.000,    15.000,     0.000,     0.000,     0.000,     0.000, 261
  1263,'99',1,  25,  99,     0.346,     0.173,     0.000,     0.000,     0.000,     0.000,   1
  1274,'37',1,  25,  37,    12.900,     6.400,     0.000,     0.000,     0.000,     0.000,   1
  1289,'37',1,  25,  37,    32.277,    16.107,     0.000,     0.000,     0.000,     0.000, 481
  1302,'37',1,  28,  37,    62.000,    31.540,     0.000,     0.000,     0.000,     0.000,   1
  1302,'99',1,  28,  99,    10.727,     5.361,     0.000,     0.000,     0.000,     0.000,   1
  1473,'34',1,  48,  34,   -74.300,     0.000,     0.000,     0.000,     0.000,     0.000,   1
  1482,'36',1,  43,  36,    10.700,     5.400,     0.000,     0.000,     0.000,     0.000,   1
  1487,'36',1,  43,  36,    11.500,     5.800,     0.000,     0.000,     0.000,     0.000,   1
  1495,'36',1,  36,  36,     7.600,     3.800,     0.000,     0.000,     0.000,     0.000,   1
  1496,'36',1,  36,  36,     8.600,     4.300,     0.000,     0.000,     0.000,     0.000,   1
  1497,'36',1,  36,  36,    17.100,     8.600,     0.000,     0.000,     0.000,     0.000,   1
  1503,'34',1,  15,  34,    10.000,     3.300,     0.000,     0.000,     0.000,     0.000,   2
  1504,'34',1,  15,  34,    10.000,     3.300,     0.000,     0.000,     0.000,     0.000,   2
  1505,'34',1,  15,  34,    10.000,     3.300,     0.000,     0.000,     0.000,     0.000,   2
  1506,'34',1,  15,  34,    10.000,     3.300,     0.000,     0.000,     0.000,     0.000,   2
  2053,'99',1,  48,  99,     2.682,     0.778,     0.000,     0.000,     0.000,     0.000,  17
  2060,'99',1,  33,  99,    10.900,     4.237,     0.000,     0.000,     0.000,     0.000,  17
  2062,'99',1,  33,  99,     6.575,     3.718,     0.000,     0.000,     0.000,     0.000,  17
  2063,'99',1,  33,  99,     6.748,     3.805,     0.000,     0.000,     0.000,     0.000,  17
  2085,'99',1,  26,  99,    20.762,     7.437,     0.000,     0.000,     0.000,     0.000,  17
  2089,'99',1,  60,  99,     9.776,     4.151,     0.000,     0.000,     0.000,     0.000,  17
  2103,'99',1,  34,  99,     1.817,     0.259,     0.000,     0.000,     0.000,     0.000,  17
  2125,'99',1,  60,  99,     6.921,     3.027,     0.000,     0.000,     0.000,     0.000,  17
  2169,'99',1,  44,  99,     7.007,     1.556,     0.000,     0.000,     0.000,     0.000,  17
  2173,'99',1,  60,  99,     5.623,     0.432,     0.000,     0.000,     0.000,     0.000,  17
  2198,'99',1,   6,  99,     2.855,     0.778,     0.000,     0.000,     0.000,     0.000,  17
  2208,'99',1,   6,  99,     7.007,     2.940,     0.000,     0.000,     0.000,     0.000,   3
  2218,'99',1,  60,  99,     5.104,     1.816,     0.000,     0.000,     0.000,     0.000,  17
  2231,'99',1,  55,  99,     2.509,     0.519,     0.000,     0.000,     0.000,     0.000,  17
  2242,'99',1,  46,  99,    12.630,     4.410,     0.000,     0.000,     0.000,     0.000,  17
  2260,'99',1,  48,  99,    11.333,     3.372,     0.000,     0.000,     0.000,     0.000,  17
  2266,'99',1,  48,  99,     2.941,    -0.346,     0.000,     0.000,     0.000,     0.000,  17
  2269,'99',1,  52,  99,     3.287,     1.297,     0.000,     0.000,     0.000,     0.000,  17
  2284,'99',1,   4,  99,     2.422,     0.432,     0.000,     0.000,     0.000,     0.000,  17
  2297,'99',1,  32,  99,     7.786,     2.162,     0.000,     0.000,     0.000,     0.000,  17
  2298,'99',1,  26,  99,    24.482,     0.000,     0.000,     0.000,     0.000,     0.000,  17
  2301,'99',1,  28,  99,     6.402,     2.075,     0.000,     0.000,     0.000,     0.000,   1
  2315,'99',1,  45,  99,     0.606,     0.086,     0.000,     0.000,     0.000,     0.000,  17
  2340,'99',1,  45,  99,     6.142,     0.605,     0.000,     0.000,     0.000,     0.000,  17
  2344,'99',1,  48,  99,     3.460,     0.519,     0.000,     0.000,     0.000,     0.000,  17
  2357,'99',1,  60,  99,     7.007,     1.556,     0.000,     0.000,     0.000,     0.000,  17
  2364,'99',1,  40,  99,     7.959,     1.816,     0.000,     0.000,     0.000,     0.000,  17
  2366,'99',1,  60,  99,     6.315,     1.297,     0.000,     0.000,     0.000,     0.000,  17
  2368,'99',1,  29,  99,     5.969,     2.075,     0.000,     0.000,     0.000,     0.000,  17
  2369,'99',1,  25,  99,    11.333,     3.286,     0.000,     0.000,     0.000,     0.000,  17
  2370,'99',1,  25,  99,    11.333,     3.286,     0.000,     0.000,     0.000,     0.000,  17
  2373,'99',1,  32,  99,     1.471,     0.519,     0.000,     0.000,     0.000,     0.000,  17
  2384,'99',1,  35,  99,    29.067,     8.907,     0.000,     0.000,     0.000,     0.000,  17
  2392,'35',1,  27,  35,     9.740,     0.000,     0.000,     0.000,     0.000,     0.000, 301
  2392,'99',1,  27,  99,    43.774,    21.877,     0.000,     0.000,     0.000,     0.000, 301
  2397,'99',1,  29,  99,    12.544,     3.805,     0.000,     0.000,     0.000,     0.000,  17
  2399,'99',1,  47,  99,    10.987,     1.989,     0.000,     0.000,     0.000,     0.000,  17
  2415,'99',1,  29,  99,     0.087,     0.086,     0.000,     0.000,     0.000,     0.000,  17
  2417,'35',1,  27,  35,     9.032,     0.000,     0.000,     0.000,     0.000,     0.000,  17
  2417,'99',1,  27,  99,     1.903,     0.951,     0.000,     0.000,     0.000,     0.000,  17
  2514,'99',1,  60,  99,     2.595,     1.211,     0.000,     0.000,     0.000,     0.000,   5
  2550,'99',1,   6,  99,     8.478,     3.718,     0.000,     0.000,     0.000,     0.000,   3
  2551,'99',1,   6,  99,     7.526,     2.162,     0.000,     0.000,     0.000,     0.000,   3
  2555,'99',1,   6,  99,    14.361,     1.384,     0.000,     0.000,     0.000,     0.000,   3
  2556,'99',1,   6,  99,     1.903,     0.259,     0.000,     0.000,     0.000,     0.000,   3
  2559,'99',1,   6,  99,     4.499,     1.902,     0.000,     0.000,     0.000,     0.000,   3
  2561,'99',1,   6,  99,     9.430,     2.162,     0.000,     0.000,     0.000,     0.000,   3
  2564,'99',1,   6,  99,     7.959,     2.594,     0.000,     0.000,     0.000,     0.000,   3
  2567,'99',1,   6,  99,    11.679,     3.459,     0.000,     0.000,     0.000,     0.000,   3
  2568,'99',1,   6,  99,     5.191,     1.470,     0.000,     0.000,     0.000,     0.000,   3
  2571,'99',1,   6,  99,     2.163,     0.951,     0.000,     0.000,     0.000,     0.000,   3
  2572,'99',1,   6,  99,     7.440,     1.902,     0.000,     0.000,     0.000,     0.000,   3
  2573,'99',1,   6,  99,     3.547,     0.778,     0.000,     0.000,     0.000,     0.000,   3
  2578,'99',1,   6,  99,     0.952,     0.432,     0.000,     0.000,     0.000,     0.000,   3
  2579,'99',1,   6,  99,     2.076,     0.692,     0.000,     0.000,     0.000,     0.000,   3
  2585,'99',1,   6,  99,     6.229,     2.940,     0.000,     0.000,     0.000,     0.000,   3
  2588,'99',1,   6,  99,     9.689,     3.372,     0.000,     0.000,     0.000,     0.000,   3
  2598,'99',1,   6,  99,    10.554,     4.669,     0.000,     0.000,     0.000,     0.000,   3
  2605,'99',1,  29,  99,     0.952,     0.173,     0.000,     0.000,     0.000,     0.000,  17
  2690,'99',1,  54,  99,     8.218,     2.681,     0.000,     0.000,     0.000,     0.000,  17
  2716,'99',1,  42,  99,     3.633,     1.816,     0.000,     0.000,     0.000,     0.000, 391
  2771,'99',1,  33,  99,     7.959,     3.978,     0.000,     0.000,     0.000,     0.000,  17
  2779,'99',1,  40,  99,     2.509,     0.432,     0.000,     0.000,     0.000,     0.000,  17
  2780,'99',1,  35,  99,     8.045,     3.978,     0.000,     0.000,     0.000,     0.000,  17
  3017,'99',1,  29,  99,     9.430,     3.372,     0.000,     0.000,     0.000,     0.000,  17
  3020,'99',1,  29,  99,    10.554,     7.609,     0.000,     0.000,     0.000,     0.000,  17
  3036,'99',1,  30,  99,     9.698,     4.505,     0.000,     0.000,     0.000,     0.000,  17
  3038,'99',1,  30,  99,     2.163,     0.778,     0.000,     0.000,     0.000,     0.000,  17
  3040,'99',1,  60,  99,    17.215,     5.707,     0.000,     0.000,     0.000,     0.000,  17
  3041,'99',1,  40,  99,     7.180,     2.594,     0.000,     0.000,     0.000,     0.000,  17
  3047,'99',1,  60,  99,    13.236,     1.384,     0.000,     0.000,     0.000,     0.000,  17
  3053,'99',1,  48,  99,     2.682,     0.778,     0.000,     0.000,     0.000,     0.000,  17
  3055,'99',1,  60,  99,     7.526,     3.459,     0.000,     0.000,     0.000,     0.000,  17
  3056,'99',1,  60,  99,     8.305,     3.891,     0.000,     0.000,     0.000,     0.000,  17
  3058,'99',1,  60,  99,    14.188,     4.410,     0.000,     0.000,     0.000,     0.000,  17
  3059,'99',1,  33,  99,    16.610,     6.831,     0.000,     0.000,     0.000,     0.000,  17
  3060,'99',1,  33,  99,    10.900,     4.237,     0.000,     0.000,     0.000,     0.000,  17
  3062,'99',1,  33,  99,     5.018,     2.162,     0.000,     0.000,     0.000,     0.000,  17
  3067,'99',1,  33,  99,     8.564,     3.372,     0.000,     0.000,     0.000,     0.000,  17
  3069,'99',1,  60,  99,    14.966,     8.301,     0.000,     0.000,     0.000,     0.000,  17
  3070,'99',1,  31,  99,     2.595,     0.865,     0.000,     0.000,     0.000,     0.000,  17
  3072,'99',1,  32,  99,     2.422,     0.778,     0.000,     0.000,     0.000,     0.000,  17
  3076,'99',1,  56,  99,     3.287,     2.594,     0.000,     0.000,     0.000,     0.000,  17
  3079,'99',1,  32,  99,     3.114,     1.556,     0.000,     0.000,     0.000,     0.000,  17
  3085,'99',1,  26,  99,    11.679,     4.237,     0.000,     0.000,     0.000,     0.000,  17
  3089,'99',1,  60,  99,     9.776,     4.151,     0.000,     0.000,     0.000,     0.000,  17
  3091,'99',1,  60,  99,    12.717,     3.805,     0.000,     0.000,     0.000,     0.000,  17
  3093,'99',1,  31,  99,     7.959,     1.384,     0.000,     0.000,     0.000,     0.000,  17
  3100,'99',1,  38,  99,     8.651,     1.816,     0.000,     0.000,     0.000,     0.000,  17
  3107,'99',1,  38,  99,    12.284,     2.075,     0.000,     0.000,     0.000,     0.000,  17
  3110,'99',1,  60,  99,     0.346,     0.173,     0.000,     0.000,     0.000,     0.000,  17
  3112,'99',1,  37,  99,     2.336,     1.211,     0.000,     0.000,     0.000,     0.000,  17
  3113,'99',1,  35,  99,     7.786,     1.816,     0.000,     0.000,     0.000,     0.000,  17
  3119,'99',1,  35,  99,    10.987,     1.211,     0.000,     0.000,     0.000,     0.000,  17
  3120,'99',1,  39,  99,     6.229,     3.199,     0.000,     0.000,     0.000,     0.000,  17
  3121,'99',1,  39,  99,     9.949,     2.767,     0.000,     0.000,     0.000,     0.000,  17
  3124,'99',1,  39,  99,     5.710,     0.951,     0.000,     0.000,     0.000,     0.000,  17
  3150,'99',1,  30,  99,    18.340,     7.696,     0.000,     0.000,     0.000,     0.000,  17
  3168,'99',1,  44,  99,     1.298,    -0.259,     0.000,     0.000,     0.000,     0.000,  17
  3169,'99',1,  44,  99,     6.748,     1.556,     0.000,     0.000,     0.000,     0.000,  17
  3171,'99',1,  44,  99,     4.758,     0.865,     0.000,     0.000,     0.000,     0.000,  17
  3173,'99',1,  60,  99,     7.440,     0.605,     0.000,     0.000,     0.000,     0.000,  17
  3180,'99',1,  44,  99,     6.402,     2.421,     0.000,     0.000,     0.000,     0.000,  17
  3192,'99',1,  31,  99,     7.613,     3.372,     0.000,     0.000,     0.000,     0.000,  17
  3194,'99',1,  44,  99,     2.595,     0.173,     0.000,     0.000,     0.000,     0.000,  17
  3199,'99',1,  44,  99,     4.499,     0.519,     0.000,     0.000,     0.000,     0.000,  17
  3208,'99',1,   6,  99,     5.883,     2.508,     0.000,     0.000,     0.000,     0.000,   3
  3215,'99',1,  30,  99,     5.018,     2.162,     0.000,     0.000,     0.000,     0.000,  17
  3218,'99',1,  60,  99,     5.104,     1.816,     0.000,     0.000,     0.000,     0.000,  17
  3227,'99',1,  55,  99,     4.672,     2.681,     0.000,     0.000,     0.000,     0.000,  17
...
0 / END OF LOAD DATA, BEGIN FIXED SHUNT DATA
0 / END OF FIXED SHUNT DATA, BEGIN GENERATOR DATA
     6,'1 ',     5.600,    -2.022,     3.500,    -3.500,1.02500,     0,     6.200, 0.00000E+0, 1.80000E-1, 0.00000E+0, 0.00000E+0,1.00000,1,  100.0,     5.600,     0.000,   7,1.0000
     6,'2 ',     0.285,    -0.103,     3.500,    -3.500,1.02500,     0,     6.200, 0.00000E+0, 1.80000E-1, 0.00000E+0, 0.00000E+0,1.00000,1,  100.0,     5.600,     0.000,   7,1.0000
     6,'3 ',     2.439,    -0.702,     3.500,    -3.500,1.02500,     0,     6.200, 0.00000E+0, 1.80000E-1, 0.00000E+0, 0.00000E+0,1.00000,0,  100.0,     5.600,     0.000,   7,1.0000
    14,'1 ',    10.611,    -4.351,     8.200,    -5.600,1.02500,     0,    21.000, 0.00000E+0, 1.30000E-1, 0.00000E+0, 0.00000E+0,1.00000,1,  100.0,    17.000,     6.000,   4,1.0000
    33,'1 ',     0.000,     0.000,     0.000,     0.000,1.02200,     0,     9.300, 2.00000E-3, 2.10000E-1, 0.00000E+0, 0.00000E+0,1.00000,0,  100.0,     0.000,    -0.500,  17,1.0000
    33,'2 ',     0.000,     0.000,     0.000,     0.000,1.02200,     0,     9.300, 2.00000E-3, 2.20000E-1, 0.00000E+0, 0.00000E+0,1.00000,0,  100.0,     0.000,    -0.500,  17,1.0000
    43,'1 ',    -2.500,     0.000,     0.000,     0.000,1.00000,     0,     4.000, 0.00000E+0, 2.50000E-1, 0.00000E+0, 0.00000E+0,1.00000,0,  100.0,     0.000,    -4.000,  29,1.0000
    43,'2 ',    -2.500,     0.000,     0.000,     0.000,1.00000,     0,     4.000, 0.00000E+0, 2.50000E-1, 0.00000E+0, 0.00000E+0,1.00000,0,  100.0,     0.000,    -4.000,  29,1.0000
    43,'3 ',    -2.500,     0.000,     0.000,     0.000,1.00000,     0,     4.000, 0.00000E+0, 2.50000E-1, 0.00000E+0, 0.00000E+0,1.00000,0,  100.0,     0.000,    -4.000,  29,1.0000
    43,'4 ',    -2.500,     0.000,     0.000,     0.000,1.00000,     0,     4.000, 0.00000E+0, 2.50000E-1, 0.00000E+0, 0.00000E+0,1.00000,0,  100.0,     0.000,    -4.000,  29,1.0000
    43,'G1',    84.000,   -17.000,    55.000,   -17.000,1.00000,     0,    96.100, 1.66000E-3, 2.10000E-1, 0.00000E+0, 0.00000E+0,1.00000,1,  100.0,    84.000,     0.000,  29,1.0000
    43,'GT',    87.700,   -15.100,    36.100,   -15.100,1.00000,     0,   110.400, 4.00000E-3, 2.19000E-1, 0.00000E+0, 0.00000E+0,1.00000,1,  100.0,    87.700,    20.000,  29,1.0000
    43,'M1',    -4.800,     0.000,     0.000,     0.000,1.00000,     0,    12.800, 0.00000E+0, 3.20000E-1, 0.00000E+0, 0.00000E+0,1.00000,0,  100.0,     0.000,   -11.190,  29,1.0000
    43,'M2',    -4.800,     0.000,     0.000,     0.000,1.00000,     0,    12.800, 0.00000E+0, 3.20000E-1, 0.00000E+0, 0.00000E+0,1.00000,0,  100.0,     0.000,   -11.190,  29,1.0000
    43,'M3',    -4.800,     0.000,     0.000,     0.000,1.00000,     0,    12.800, 0.00000E+0, 3.20000E-1, 0.00000E+0, 0.00000E+0,1.00000,0,  100.0,     0.000,   -11.190,  29,1.0000
    43,'M4',    -4.800,     0.000,     0.000,     0.000,1.00000,     0,    12.800, 0.00000E+0, 3.20000E-1, 0.00000E+0, 0.00000E+0,1.00000,0,  100.0,     0.000,   -11.190,  29,1.0000
    43,'M5',    -4.800,     0.000,     0.000,     0.000,1.00000,     0,    12.800, 0.00000E+0, 3.20000E-1, 0.00000E+0, 0.00000E+0,1.00000,0,  100.0,     0.000,   -11.190,  29,1.0000
    43,'M6',    -4.000,     0.000,     0.000,     0.000,1.00000,     0,    25.600, 0.00000E+0, 2.33000E-1, 0.00000E+0, 0.00000E+0,1.00000,0,  100.0,     0.000,   -25.600,  29,1.0000
    43,'ST',    24.650,   -10.000,    40.500,   -10.000,1.00000,     0,   106.300, 3.84000E-3, 1.80000E-1, 0.00000E+0, 0.00000E+0,1.00000,1,  100.0,    90.400,    10.000,  29,1.0000
    50,'1 ',    33.575,    13.774,    18.800,   -16.300,1.03000,     0,    71.200, 0.00000E+0, 1.81000E-1, 0.00000E+0, 0.00000E+0,1.00000,1,  100.0,    40.800,    20.000, 211,1.0000
    61,'G1',    75.600,     2.980,    42.400,   -26.300,1.04000,     0,   110.600, 0.00000E+0, 3.00000E-1, 0.00000E+0, 0.00000E+0,1.00000,1,  100.0,    75.600,     0.000, 191,1.0000
    61,'G2',     5.700,     0.225,    46.200,   -25.400,1.04000,     0,   110.600, 0.00000E+0, 3.00000E-1, 0.00000E+0, 0.00000E+0,1.00000,1,  100.0,    79.300,     0.000, 191,1.0000
    61,'GT',    37.618,    14.874,    41.200,   -27.900,1.04000,     0,    97.000, 4.00000E-3, 2.00000E-1, 0.00000E+0, 0.00000E+0,1.00000,0,  100.0,    85.000,    17.000, 191,1.0000
    61,'M1',    -2.700,     0.000,     0.000,    -5.800,1.04000,     0,     9.900, 6.40000E-3, 1.98000E-1, 0.00000E+0, 0.00000E+0,1.00000,0,  100.0,     0.000,    -9.698, 191,1.0000
    61,'M2',    -3.500,     0.000,     0.000,     0.000,1.04000,     0,    12.500, 5.50000E-3, 2.50000E-1, 0.00000E+0, 0.00000E+0,1.00000,0,  100.0,     0.000,   -12.520, 191,1.0000
    61,'ST',    20.285,     8.021,    21.800,   -14.700,1.04000,     0,    50.600, 5.00000E-3, 2.00000E-1, 0.00000E+0, 0.00000E+0,1.00000,0,  100.0,    45.000,    12.000, 191,1.0000
   102,'1 ',    24.265,     0.134,    17.000,   -18.000,0.97300,     0,    65.500, 1.95000E-3, 3.40000E-1, 0.00000E+0, 0.00000E+0,1.00000,0,  100.0,    60.000,     0.000,  17,1.0000
   108,'2 ',    37.805,     0.969,    17.000,   -18.000,0.97200,     0,    65.500, 1.95000E-3, 3.20000E-1, 0.00000E+0, 0.00000E+0,1.00000,1,  100.0,    60.000,     0.000,  17,1.0000
   130,'3 ',   283.752,   -43.876,   140.000,   -60.000,0.98400,     0,   444.400, 3.00000E-3, 2.30000E-1, 0.00000E+0, 0.00000E+0,1.00000,1,  100.0,   375.000,   155.500,  17,1.0000
   151,'1 ',     3.822,    35.281,    62.000,   -20.000,1.04797,     0,   184.000, 2.00000E-3, 2.10000E-1, 0.00000E+0, 0.00000E+0,1.00000,1,  100.0,   162.000,     0.000,  17,1.0000
   154,'2 ',     2.439,    24.000,    24.000,   -20.000,1.04797,     0,   207.000, 2.00000E-3, 3.30000E-1, 0.00000E+0, 0.00000E+0,1.00000,0,  100.0,   170.000,    -3.100,  17,1.0000
   172,'1 ',     5.000,    -2.000,     5.000,    -2.000,1.02500,     0,     6.300, 2.00000E-3, 2.00000E-1, 0.00000E+0, 0.00000E+0,1.00000,1,  100.0,     5.000,     0.000,  17,1.0000
   172,'2 ',     2.531,    -1.000,     1.000,    -1.000,1.02500,     0,     3.800, 2.00000E-3, 2.00000E-1, 0.00000E+0, 0.00000E+0,1.00000,1,  100.0,     3.500,     0.000,  17,1.0000
   172,'3 ',     1.797,    -0.679,     1.000,    -1.000,1.02500,     0,     3.800, 2.00000E-3, 2.00000E-1, 0.00000E+0, 0.00000E+0,1.00000,0,  100.0,     3.500,     0.000,  17,1.0000
   172,'4 ',     2.953,    -1.115,     1.500,    -2.000,1.02500,     0,     6.300, 2.00000E-3, 2.00000E-1, 0.00000E+0, 0.00000E+0,1.00000,0,  100.0,     5.000,     0.000,  17,1.0000
   174,'1 ',     6.600,    -0.244,    31.600,   -10.000,1.04663,     0,    47.500, 2.00000E-3, 2.10000E-1, 0.00000E+0, 0.00000E+0,1.00000,1,  100.0,    47.500,     0.000,  17,1.0000
   176,'1 ',     0.948,     3.971,    15.500,    -6.500,1.04775,     0,    20.000, 2.00000E-3, 2.50000E-1, 0.00000E+0, 0.00000E+0,1.00000,1,  100.0,    17.000,    -0.500,  17,1.0000
   176,'2 ',     0.500,     0.000,    17.600,    -0.900,1.04775,     0,    20.000, 2.00000E-3, 2.50000E-1, 0.00000E+0, 0.00000E+0,1.00000,0,  100.0,    18.000,    -0.500,  17,1.0000
   181,'2 ',     6.276,     8.378,    10.000,   -10.000,1.02408,     0,    18.000, 2.00000E-3, 2.00000E-1, 0.00000E+0, 0.00000E+0,1.00000,1,  100.0,    17.000,     0.000,  17,1.0000
   181,'3 ',     2.311,     2.566,    12.800,   -10.000,1.02408,     0,    20.000, 2.00000E-3, 2.00000E-1, 0.00000E+0, 0.00000E+0,1.00000,0,  100.0,    17.000,     0.000,  17,1.0000
   181,'4 ',     3.466,     3.849,    15.000,   -10.600,1.02408,     0,    29.500, 2.00000E-3, 3.70000E-1, 0.00000E+0, 0.00000E+0,1.00000,0,  100.0,    28.000,    -0.500,  17,1.0000
   183,'1 ',     5.915,    -5.500,    14.000,    -5.500,1.01500,     0,    18.000, 2.00000E-3, 2.10000E-1, 0.00000E+0, 0.00000E+0,1.00000,1,  100.0,    16.000,     0.000,  17,1.0000
   189,'1 ',   -10.900,     0.000,     0.000,     0.000,1.00000,     0,    15.000, 0.00000E+0, 2.50000E-1, 0.00000E+0, 0.00000E+0,1.00000,1,  100.0,     0.000,   -15.000,  17,1.0000
   189,'2 ',   -10.900,     0.000,     0.000,     0.000,1.00000,     0,    15.000, 0.00000E+0, 2.50000E-1, 0.00000E+0, 0.00000E+0,1.00000,1,  100.0,     0.000,   -15.000,  17,1.0000
   190,'1 ',     3.980,    -0.183,    20.000,   -20.000,1.04651,     0,    47.500, 2.00000E-3, 2.40000E-1, 0.00000E+0, 0.00000E+0,1.00000,0,  100.0,    47.500,     0.000,  17,1.0000
   196,'1 ',     4.500,     1.337,     2.200,    -1.200,1.04786,     0,     4.300, 2.00000E-3, 2.00000E-1, 0.00000E+0, 0.00000E+0,1.00000,1,  100.0,     4.500,     0.000,  17,1.0000
   196,'2 ',     3.562,     1.058,     2.200,    -1.200,1.04786,     0,     4.300, 2.00000E-3, 2.00000E-1, 0.00000E+0, 0.00000E+0,1.00000,1,  100.0,     4.500,     0.000,  17,1.0000
   196,'3 ',     5.777,     1.589,     6.200,    -5.600,1.04786,     0,    11.300, 2.00000E-3, 2.50000E-1, 0.00000E+0, 0.00000E+0,1.00000,0,  100.0,    10.000,     0.000,  17,1.0000
   197,'2 ',     1.916,    22.500,    22.500,   -12.900,1.04761,     0,    35.000, 2.00000E-3, 2.00000E-1, 0.00000E+0, 0.00000E+0,1.00000,1,  100.0,    30.000,    -1.000,  17,1.0000
   214,'1 ',     0.200,     6.600,     6.600,    -9.000,1.03415,     0,    15.000, 2.00000E-3, 1.60000E-1, 0.00000E+0, 0.00000E+0,1.00000,1,  100.0,    12.500,     0.000,  17,1.0000
   222,'1 ',     0.709,    -1.915,     5.900,    -8.500,1.03000,     0,    11.300, 2.00000E-3, 2.50000E-1, 0.00000E+0, 0.00000E+0,1.00000,1,  100.0,    11.200,     0.000,  17,1.0000
   248,'1 ',    90.000,    29.800,    29.800,   -13.600,1.10000,     0,   112.000, 0.00000E+0, 2.27100E-1, 0.00000E+0, 0.00000E+0,1.00000,1,  100.0,    90.000,    16.000,  36,1.0000
   248,'2 ',    80.971,    28.300,    28.300,   -15.000,1.10000,     0,   112.000, 0.00000E+0, 2.27100E-1, 0.00000E+0, 0.00000E+0,1.00000,1,  100.0,    90.000,    16.000,  36,1.0000
   255,'1 ',     3.928,     0.000,     0.000,     0.000,1.02560,     0,    14.000, 3.00000E-1, 2.30000E-1, 0.00000E+0, 0.00000E+0,1.00000,1,  100.0,    11.300,     0.000,  17,1.0000
   265,'1 ',     3.231,     0.000,     0.000,     0.000,1.02551,     0,    13.800, 3.00000E-1, 2.30000E-1, 0.00000E+0, 0.00000E+0,1.00000,1,  100.0,    10.100,     0.000,  17,1.0000
   268,'1 ',    -7.800,     0.000,     0.000,     0.000,1.00000,     0,    22.400, 0.00000E+0, 1.60000E-1, 0.00000E+0, 0.00000E+0,1.00000,1,  100.0,     0.000,   -22.400,  17,1.0000
   268,'E1',    -0.800,     0.000,     0.000,     0.000,1.00000,     0,     2.600, 0.00000E+0, 1.60000E-1, 0.00000E+0, 0.00000E+0,1.00000,1,  100.0,     0.000,    -2.600,  17,1.0000
   268,'F1',    -2.300,     0.000,     0.000,     0.000,1.00000,     0,     8.200, 0.00000E+0, 1.00000E+0, 0.00000E+0, 0.00000E+0,1.00000,1,  100.0,     0.000,    -8.200,  17,1.0000
   268,'F2',    -2.300,     0.000,     0.000,     0.000,1.00000,     0,     8.200, 0.00000E+0, 1.00000E+0, 0.00000E+0, 0.00000E+0,1.00000,1,  100.0,     0.000,    -8.200,  17,1.0000
   287,'1 ',    -7.600,     0.000,     0.000,     0.000,1.01747,     0,    22.400, 0.00000E+0, 1.60000E-1, 0.00000E+0, 0.00000E+0,1.00000,1,  100.0,     0.000,   -22.400,  17,1.0000
   287,'E2',    -0.400,    -0.200,     0.000,     0.000,1.01747,     0,     2.600, 0.00000E+0, 1.60000E-1, 0.00000E+0, 0.00000E+0,1.00000,0,  100.0,     0.000,    -2.600,  17,1.0000
   288,'1 ',    -7.800,     0.000,     0.000,     0.000,1.00723,     0,    22.400, 0.00000E+0, 1.60000E-1, 0.00000E+0, 0.00000E+0,1.00000,1,  100.0,     0.000,   -22.400,  17,1.0000
   289,'1 ',    -6.200,     0.000,     0.000,     0.000,1.00747,     0,    18.700, 0.00000E+0, 2.11000E-1, 0.00000E+0, 0.00000E+0,1.00000,1,  100.0,     0.000,   -18.700,  17,1.0000
   289,'2 ',    -6.200,     0.000,     0.000,     0.000,1.00747,     0,    18.700, 0.00000E+0, 2.11000E-1, 0.00000E+0, 0.00000E+0,1.00000,1,  100.0,     0.000,   -18.700,  17,1.0000
   332,'1 ',     8.794,    -1.049,     6.300,    -6.300,1.04763,     0,    12.500, 0.00000E+0, 1.30000E-1, 0.00000E+0, 0.00000E+0,1.00000,1,  100.0,    10.500,     0.000,   4,1.0000
   342,'4A',   265.131,     3.808,   180.000,   -53.000,0.98700,     0,   483.000, 2.00000E-3, 2.50000E-1, 0.00000E+0, 0.00000E+0,1.00000,1,  100.0,   430.000,   169.000,  17,1.0000
   345,'5A',   150.000,    13.771,   210.000,   -59.000,0.99500,     0,   483.000, 2.00000E-3, 2.50000E-1, 0.00000E+0, 0.00000E+0,1.00000,1,  100.0,   435.000,   150.000,  17,1.0000
   350,'6A',   359.738,    17.833,   165.000,   -38.000,0.98800,     0,   472.800, 2.00000E-3, 2.47000E-1, 0.00000E+0, 0.00000E+0,1.00000,1,  100.0,   430.000,   150.000,  17,1.0000
   377,'1 ',     0.016,    -0.502,     2.200,    -1.200,1.03085,     0,     5.600, 2.00000E-3, 2.00000E-1, 0.00000E+0, 0.00000E+0,1.00000,1,  100.0,     5.000,     0.000,  17,1.0000
   381,'1 ',     0.311,    -1.500,     1.500,    -1.500,1.04255,     0,     4.000, 2.00000E-3, 2.00000E-1, 0.00000E+0, 0.00000E+0,1.00000,1,  100.0,     2.700,     0.000,  17,1.0000
   383,'1 ',   112.300,   -37.000,    48.000,   -37.000,1.01800,     0,   165.000, 7.40000E-3, 1.41000E-1, 0.00000E+0, 0.00000E+0,1.00000,1,  100.0,   158.000,    55.000,  17,1.0000
   383,'2 ',    57.000,   -41.120,    53.000,   -47.000,1.01800,     0,   171.000, 7.40000E-3, 1.41000E-1, 0.00000E+0, 0.00000E+0,1.00000,0,  100.0,   163.000,    57.000,  17,1.0000
   383,'3 ',    64.194,   -24.990,    35.000,   -43.000,1.01800,     0,   157.000, 7.50000E-3, 1.31000E-1, 0.00000E+0, 0.00000E+0,1.00000,0,  100.0,   133.000,    50.000,  17,1.0000
   403,'3 ',   220.000,    40.775,   310.400,   -99.900,1.01000,     0,   586.000, 0.00000E+0, 2.77000E-1, 0.00000E+0, 0.00000E+0,1.00000,1,  100.0,   516.000,   142.000,  17,1.0000
   405,'1 ',    35.380,   -32.333,    40.000,   -35.000,1.10000,     0,   100.000, 4.00000E-3, 3.00000E-1, 0.00000E+0, 0.00000E+0,1.00000,1,  100.0,    85.000,     0.000, 251,1.0000
   407,'1 ',     4.242,     0.500,     4.400,     0.500,1.02756,     0,    13.800, 0.00000E+0, 2.30000E-1, 0.00000E+0, 0.00000E+0,1.00000,1,  100.0,    11.000,     0.000,  17,1.0000
   408,'1 ',    24.050,     5.400,     5.400,    -9.100,1.02671,     0,    35.300, 0.00000E+0, 1.80000E-1, 0.00000E+0, 0.00000E+0,1.00000,1,  100.0,    30.000,     0.000,  17,1.0000
   414,'1 ',     7.360,    -2.300,     6.600,    -2.300,1.02000,     0,    22.800, 0.00000E+0, 2.40000E-1, 0.00000E+0, 0.00000E+0,1.00000,1,  100.0,    18.500,     0.000,  17,1.0000
   422,'1 ',   395.854,    18.636,   160.000,   -30.000,0.99500,     0,   448.000, 1.16000E-2, 3.00000E-1, 0.00000E+0, 0.00000E+0,1.00000,1,  100.0,   411.000,   164.000,  17,1.0000
   424,'2 ',   358.288,     4.104,   160.000,   -29.000,0.99500,     0,   444.000, 1.16000E-2, 3.00000E-1, 0.00000E+0, 0.00000E+0,1.00000,1,  100.0,   404.000,   199.000,  17,1.0000
   447,'1 ',     1.378,     0.700,     0.700,    -0.900,1.06258,     0,     3.400, 0.00000E+0, 2.00000E-1, 0.00000E+0, 0.00000E+0,1.00000,1,  100.0,     2.700,     0.000,   8,1.0000
   448,'1 ',     1.486,     0.700,     0.700,    -0.900,1.04736,     0,     2.700, 0.00000E+0, 2.00000E-1, 0.00000E+0, 0.00000E+0,1.00000,1,  100.0,     2.300,     0.000,   8,1.0000
   449,'1 ',     1.382,    -0.900,     0.700,    -0.900,1.04000,     0,     3.000, 0.00000E+0, 2.00000E-1, 0.00000E+0, 0.00000E+0,1.00000,1,  100.0,     2.700,     0.000,   8,1.0000
   450,'1 ',     0.416,     0.389,     3.500,    -3.500,1.04788,     0,     7.000, 0.00000E+0, 2.00000E-1, 0.00000E+0, 0.00000E+0,1.00000,1,  100.0,     6.300,     0.000,  17,1.0000
   479,'1 ',     0.899,     2.082,    15.000,   -10.000,1.04761,     0,    20.000, 2.00000E-3, 2.50000E-1, 0.00000E+0, 0.00000E+0,1.00000,0,  100.0,    17.000,    -1.000,  17,1.0000
   490,'3 ',   484.746,    72.772,   310.400,   -99.900,1.01100,     0,   586.000, 1.89000E-3, 2.77000E-1, 0.00000E+0, 0.00000E+0,1.00000,1,  100.0,   495.000,   142.000,   5,1.0000
   491,'1 ',   327.846,     9.777,   140.000,   -34.400,1.00700,     0,   482.400, 1.89000E-3, 2.50000E-1, 0.00000E+0, 0.00000E+0,1.00000,1,  100.0,   416.000,   123.600,   5,1.0000
   492,'2 ',   397.127,    25.495,   181.000,   -52.000,1.01000,     0,   482.400, 1.85000E-3, 2.50000E-1, 0.00000E+0, 0.00000E+0,1.00000,1,  100.0,   410.000,   200.000,   5,1.0000
   680,'1 ',    46.000,   -10.000,    20.000,   -10.000,1.02000,     0,    62.500, 0.00000E+0, 1.97000E-1, 0.00000E+0, 0.00000E+0,1.00000,1,  100.0,    46.000,     0.000,  17,1.0000
   680,'10',    27.000,    -6.400,    22.800,    -6.400,1.02000,     0,    35.400, 0.00000E+0, 2.20000E-1, 0.00000E+0, 0.00000E+0,1.00000,1,  100.0,    27.000,     0.000,  17,1.0000
   680,'11',     2.604,    -0.871,    22.200,    -5.900,1.02000,     0,    35.400, 0.00000E+0, 2.20000E-1, 0.00000E+0, 0.00000E+0,1.00000,1,  100.0,    27.000,     0.000,  17,1.0000
   680,'12',    13.247,    -3.100,    17.600,    -3.100,1.02000,     0,    42.600, 0.00000E+0, 1.60000E-1, 0.00000E+0, 0.00000E+0,1.00000,0,  100.0,    33.000,     0.000,  17,1.0000
   680,'14',    13.818,    -4.735,    27.700,   -12.600,1.02000,     0,    67.500, 1.40000E-3, 1.90000E-1, 0.00000E+0, 0.00000E+0,1.00000,0,  100.0,    41.500,    10.000,  17,1.0000
   680,'15',    15.000,     0.000,    32.000,    22.000,1.02000,     0,    71.200, 5.30000E-3, 1.44000E-1, 0.00000E+0, 0.00000E+0,1.00000,0,  100.0,    64.100,    15.000,  17,1.0000
   680,'3 ',    14.160,    -3.400,    20.700,    -3.400,1.02000,     0,    42.600, 0.00000E+0, 1.60000E-1, 0.00000E+0, 0.00000E+0,1.00000,0,  100.0,    36.200,     0.000,  17,1.0000
   680,'5 ',     0.000,     0.000,     5.800,    -6.300,1.02000,     0,    19.200, 0.00000E+0, 1.60000E-1, 0.00000E+0, 0.00000E+0,1.00000,0,  100.0,    16.300,     0.000,  17,1.0000
   680,'8 ',    13.361,    -4.579,    16.900,    -8.800,1.02000,     0,    44.900, 0.00000E+0, 2.60000E-1, 0.00000E+0, 0.00000E+0,1.00000,0,  100.0,    40.400,     0.000,  17,1.0000
   680,'9 ',    13.361,    -4.579,    17.400,   -10.200,1.02000,     0,    44.900, 0.00000E+0, 2.60000E-1, 0.00000E+0, 0.00000E+0,1.00000,0,  100.0,    33.900,     0.000,  17,1.0000
  1015,'1 ',    46.000,     0.778,    30.800,   -10.000,1.02500,     0,    58.000, 4.63100E-2, 1.44000E-1, 0.00000E+0, 0.00000E+0,1.00000,1,  100.0,    46.000,    15.000,  23,1.0000
  1031,'1 ',     4.000,     0.000,    15.000,   -15.000,1.02000,     0,    32.000, 3.50000E-3, 7.00000E-2, 0.00000E+0, 0.00000E+0,1.00000,0,  100.0,    30.000,     4.000,   1,1.0000
  1032,'2 ',     4.000,   -18.247,    25.000,   -25.000,1.02000,     0,    49.000, 7.20000E-3, 1.45000E-1, 0.00000E+0, 0.00000E+0,1.00000,1,  100.0,    40.000,     4.000,   1,1.0000
  1033,'3 ',     3.000,     0.000,    12.000,    -9.000,1.02000,     0,    21.700, 4.50000E-3, 9.00000E-2, 0.00000E+0, 0.00000E+0,1.00000,0,  100.0,    20.000,     3.000,   1,1.0000
  1035,'4 ',    35.560,   -11.700,    24.400,   -12.300,1.02000,     0,    58.600, 1.40000E-3, 1.62000E-1, 0.00000E+0, 0.00000E+0,1.00000,1,  100.0,    45.000,     9.000,  21,1.0000
  1037,'5 ',    12.576,    -4.736,    18.600,   -15.300,1.02000,     0,    60.000, 1.40000E-3, 1.98000E-1, 0.00000E+0, 0.00000E+0,1.00000,1,  100.0,    49.200,     2.000,  21,1.0000
  1089,'1 ',    28.377,    -5.155,    22.900,   -15.200,1.01710,     0,    47.100, 9.30000E-3, 1.88000E-1, 0.00000E+0, 0.00000E+0,1.00000,1,  100.0,    40.000,     9.900,   1,1.0000
  1101,'2 ',    22.904,    -1.700,     7.900,    -1.700,1.05000,     0,    32.000, 3.10000E-3, 1.98000E-1, 0.00000E+0, 0.00000E+0,1.00000,1,  100.0,    25.600,     0.000,  30,1.0000
  1141,'1 ',    29.700,     6.716,    16.000,   -16.000,1.03000,     0,    35.000, 4.00000E-3, 9.50000E-2, 0.00000E+0, 0.00000E+0,1.00000,1,  100.0,    29.700,     6.800,   1,1.0000
  1148,'1 ',   118.366,    17.689,    72.800,   -52.000,1.02600,     0,   167.000, 3.00000E-3, 1.85000E-1, 0.00000E+0, 0.00000E+0,1.00000,1,  100.0,   150.000,     0.000,   1,1.0000
  1167,'1 ',     0.800,     0.000,     8.700,    -5.000,1.03000,     0,    12.500, 4.50000E-3, 1.68000E-1, 0.00000E+0, 0.00000E+0,1.00000,0,  100.0,     8.000,     0.750,   1,1.0000
  1168,'2 ',     0.800,     0.000,     6.500,    -3.700,1.00000,     0,     9.400, 5.00000E-3, 1.68000E-1, 0.00000E+0, 0.00000E+0,1.00000,0,  100.0,     8.000,     0.750,   1,1.0000
  1171,'1 ',     9.000,    -6.377,    27.000,   -13.000,1.02000,     0,    58.600, 1.40000E-3, 1.98000E-1, 0.00000E+0, 0.00000E+0,1.00000,1,  100.0,    45.000,     9.000,   1,1.0000
  1173,'2 ',     2.000,   -13.215,    30.700,   -22.000,1.00000,     0,    72.000, 5.00000E-4, 1.60000E-2, 0.00000E+0, 0.00000E+0,1.00000,1,  100.0,    47.000,     2.000,   1,1.0000
  1205,'1 ',    86.000,    27.090,    49.000,   -20.000,1.10000,     0,   102.800, 4.00000E-3, 2.30000E-1, 0.00000E+0, 0.00000E+0,1.00000,1,  100.0,    86.000,    16.450,   9,1.0000
  1205,'11',    27.000,     8.505,    27.000,   -17.000,1.10000,     0,    33.800, 4.50000E-3, 1.47000E-1, 0.00000E+0, 0.00000E+0,1.00000,1,  100.0,    27.000,     2.000,   9,1.0000
  1205,'12',    66.700,    21.010,    24.900,   -22.700,1.10000,     0,    93.800, 3.40000E-3, 1.77000E-1, 0.00000E+0, 0.00000E+0,1.00000,1,  100.0,    66.700,    23.000,   9,1.0000
  1205,'15',     0.000,     0.000,     0.000,     0.000,1.10000,     0,    10.000, 0.00000E+0, 2.75000E-1, 0.00000E+0, 0.00000E+0,1.00000,0,  100.0,     0.000,    -8.000,   9,1.0000
  1205,'16',     0.000,     0.000,     0.000,     0.000,1.10000,     0,    10.000, 0.00000E+0, 2.75000E-1, 0.00000E+0, 0.00000E+0,1.00000,0,  100.0,     0.000,   -10.000,   9,1.0000
  1205,'18',     0.000,     0.000,     0.000,     0.000,1.10000,     0,     7.000, 0.00000E+0, 2.47000E-1, 0.00000E+0, 0.00000E+0,1.00000,0,  100.0,     0.000,    -6.950,   9,1.0000
  1205,'19',     0.000,     0.000,     0.000,     0.000,1.10000,     0,     7.000, 0.00000E+0, 2.47000E-1, 0.00000E+0, 0.00000E+0,1.00000,0,  100.0,     0.000,    -6.500,   9,1.0000
  1205,'1B',   -10.300,     0.000,     0.000,     0.000,1.10000,     0,    13.000, 0.00000E+0, 2.80000E-1, 0.00000E+0, 0.00000E+0,1.00000,0,  100.0,     0.000,   -13.000,   9,1.0000
  1205,'1C',   -10.300,     0.000,     0.000,     0.000,1.10000,     0,    13.000, 0.00000E+0, 2.80000E-1, 0.00000E+0, 0.00000E+0,1.00000,0,  100.0,     0.000,   -13.000,   9,1.0000
  1205,'2 ',    82.100,    25.861,    46.000,   -26.000,1.10000,     0,   102.800, 4.00000E-3, 2.27100E-1, 0.00000E+0, 0.00000E+0,1.00000,1,  100.0,    82.100,     0.000,   9,1.0000
  1205,'20',     0.000,     0.000,     0.000,     0.000,1.10000,     0,     6.200, 0.00000E+0, 2.50000E-1, 0.00000E+0, 0.00000E+0,1.00000,0,  100.0,     0.000,    -4.000,   9,1.0000
  1205,'21',    -3.400,     0.000,     0.000,     0.000,1.10000,     0,     7.000, 0.00000E+0, 2.47000E-1, 0.00000E+0, 0.00000E+0,1.00000,0,  100.0,     0.000,    -6.500,   9,1.0000
  1205,'22',    -3.400,     0.000,     0.000,     0.000,1.10000,     0,     7.000, 0.00000E+0, 2.47000E-1, 0.00000E+0, 0.00000E+0,1.00000,0,  100.0,     0.000,    -5.400,   9,1.0000
  1205,'3 ',    -3.400,     0.000,     0.000,     0.000,1.10000,     0,     5.300, 7.00000E-3, 1.70000E-1, 0.00000E+0, 0.00000E+0,1.00000,0,  100.0,     0.000,    -4.779,   9,1.0000
  1205,'3B',    -3.400,     0.000,     0.000,     0.000,1.10000,     0,     5.300, 7.00000E-3, 1.70000E-1, 0.00000E+0, 0.00000E+0,1.00000,0,  100.0,     0.000,    -4.779,   9,1.0000
  1205,'4 ',    -3.400,     0.000,     0.000,     0.000,1.10000,     0,     4.400, 0.00000E+0, 1.80000E-1, 0.00000E+0, 0.00000E+0,1.00000,0,  100.0,     0.000,    -3.880,   9,1.0000
  1205,'5 ',    -6.800,     0.000,     0.000,     0.000,1.10000,     0,     9.200, 0.00000E+0, 3.70000E+0, 0.00000E+0, 0.00000E+0,1.00000,0,  100.0,     0.000,    -8.357,   9,1.0000
  1205,'G1',    50.000,    15.750,    28.300,   -14.000,1.10000,     0,    64.000, 4.00000E-3, 2.37000E-1, 0.00000E+0, 0.00000E+0,1.00000,1,  100.0,    50.000,    10.000,   9,1.0000
  1205,'G2',    50.000,    15.750,    35.300,    -7.200,1.10000,     0,    64.000, 4.00000E-3, 2.37000E-1, 0.00000E+0, 0.00000E+0,1.00000,1,  100.0,    50.000,    10.000,   9,1.0000
  1205,'G3',    20.000,     6.300,    25.500,   -12.900,1.10000,     0,    32.000, 4.00000E-3, 2.01000E-1, 0.00000E+0, 0.00000E+0,1.00000,1,  100.0,    22.000,    20.000,   9,1.0000
  1205,'G4',    22.061,     3.914,    25.100,   -11.200,1.10000,     0,    64.000, 4.00000E-3, 2.37000E-1, 0.00000E+0, 0.00000E+0,1.00000,0,  100.0,    50.000,    10.000,   9,1.0000
  1205,'G5',    22.322,    12.419,    25.200,   -14.500,1.10000,     0,    32.000, 4.00000E-3, 2.01000E-1, 0.00000E+0, 0.00000E+0,1.00000,0,  100.0,    22.500,    20.000,   9,1.0000
  1205,'G6',     5.649,     3.143,    35.400,    -3.700,1.10000,     0,    75.000, 5.00000E-3, 2.22000E-1, 0.00000E+0, 0.00000E+0,1.00000,0,  100.0,    68.000,     3.000,   9,1.0000
  1205,'M1',    -3.300,     0.000,     0.000,     0.000,1.10000,     0,     5.300, 7.00000E-3, 1.70000E-1, 0.00000E+0, 0.00000E+0,1.00000,0,  100.0,     0.000,    -4.779,   9,1.0000
  1208,'G1',    17.200,     4.034,    10.300,    -6.300,1.10000,     0,    38.300, 1.30000E-3, 1.52000E-1, 0.00000E+0, 0.00000E+0,1.00000,1,  100.0,    17.200,     1.500,  10,1.0000
  1208,'G2',    32.000,     7.506,    20.000,   -20.000,1.10000,     0,    38.300, 1.30000E-3, 1.05000E-1, 0.00000E+0, 0.00000E+0,1.00000,1,  100.0,    32.000,     8.074,  10,1.0000
  1208,'G3',    64.000,    15.011,    27.500,    -5.000,1.10000,     0,    76.500, 2.84000E-3, 1.30000E-1, 0.00000E+0, 0.00000E+0,1.00000,1,  100.0,    64.000,     0.000,  10,1.0000
  1208,'G4',    76.000,    17.826,    40.400,    -0.700,1.10000,     0,    90.000, 0.00000E+0, 1.60000E-1, 0.00000E+0, 0.00000E+0,1.00000,1,  100.0,    76.000,     0.000,  10,1.0000
  1208,'G5',   115.400,    27.067,    50.000,   -44.300,1.10000,     0,   145.000, 2.20000E-3, 1.50000E-1, 0.00000E+0, 0.00000E+0,1.00000,1,  100.0,   115.400,    80.000,  10,1.0000
  1208,'G6',   115.000,    26.973,    60.200,   -44.700,1.10000,     0,   145.000, 2.20000E-3, 1.50000E-1, 0.00000E+0, 0.00000E+0,1.00000,1,  100.0,   115.400,    80.000,  10,1.0000
  1208,'G7',    52.800,     2.114,    55.500,   -17.500,1.10000,     0,   103.200, 3.60000E-3, 1.75000E-1, 0.00000E+0, 0.00000E+0,1.00000,0,  100.0,    86.800,     0.000,  10,1.0000
  1236,'1 ',    84.500,   -21.100,    61.800,   -21.100,1.08000,     0,   104.700, 0.00000E+0, 2.08000E-1, 0.00000E+0, 0.00000E+0,1.00000,1,  100.0,    84.500,    36.000,  40,1.0000
  1236,'2 ',    71.800,   -22.500,    59.100,   -22.500,1.08000,     0,   104.700, 0.00000E+0, 2.08000E-1, 0.00000E+0, 0.00000E+0,1.00000,1,  100.0,    83.200,    36.000,  40,1.0000
  1241,'11',     0.000,     0.000,    -2.000,    -2.000,1.10000,     0,     4.500, 0.00000E+0, 1.00000E+0, 0.00000E+0, 0.00000E+0,1.00000,0,  100.0,     0.000,    -4.050,  99,1.0000
  1241,'12',     0.000,     0.000,    -2.000,    -2.000,1.10000,     0,     4.500, 0.00000E+0, 1.00000E+0, 0.00000E+0, 0.00000E+0,1.00000,0,  100.0,     0.000,    -4.050,  99,1.0000
  1241,'2 ',    11.500,     6.934,     7.000,     0.000,1.10000,     0,    13.500, 0.00000E+0, 1.90000E-1, 0.00000E+0, 0.00000E+0,1.00000,1,  100.0,    11.500,     0.000,  99,1.0000
  1241,'21',     0.000,     0.000,    -3.600,    -3.600,1.10000,     0,     8.400, 0.00000E+0, 1.00000E+0, 0.00000E+0, 0.00000E+0,1.00000,0,  100.0,     0.000,    -7.524,  99,1.0000
...